data/iowa240.dss
Clear
new circuit.240_node_test_system        ! Initiate a new circuit called "240_node_test_system"

Edit "Vsource.source" Bus1= eq_source_bus.1.2.3 Phases=3 Angle=0.00000 Pu=1.00000 BaseKv=69.00000 R1=4.54263687 X1=10.52743053 R0=7.36552668 X0=24.50463867

//-------------------  substation transformer --------------------//
New Transformer.Sub_Xfmr Phases=3 Windings=2 XHL=6.26591063
~ wdg=1 bus=eq_source_bus.1.2.3   conn=delta kV=69.000000 kva=10000.00000000 %R=0.62659091
~ wdg=2 bus=bus_Xfmr.1.2.3.0      conn=wye   kV=13.800000 kva=10000.00000000 %R=0.62659091

//--------------------  3 single-phase tap changers -------------//
New Transformer.sub_regulator_A Phases=1 bank=Reg1 Windings=2 XHL=0.0100000
~ wdg=1 bus=bus_Xfmr.1 conn=wye kV=7.9677 kva=3500 %R=0.00100000
~ wdg=2 bus=bus1.1     conn=wye kV=7.9677 kva=3500 %R=0.00100000 NumTaps=32 MaxTap=1.1000 MinTap=0.9000
! Winding number, bus, connection, voltage rating, kVA rating, percent resistance, total number of taps, max per unit tap, min per unit tap

New Transformer.sub_regulator_B Phases=1 bank=Reg1 Windings=2 XHL=0.0100000
~ wdg=1 bus=bus_Xfmr.2 conn=wye kV=7.9677 kva=3500 %R=0.00100000
~ wdg=2 bus=bus1.2     conn=wye kV=7.9677 kva=3500 %R=0.00100000 NumTaps=32 MaxTap=1.1000 MinTap=0.9000

New Transformer.sub_regulator_C Phases=1 bank=Reg1 Windings=2 XHL=0.0100000
~ wdg=1 bus=bus_Xfmr.3 conn=wye kV=7.9677 kva=3500 %R=0.00100000
~ wdg=2 bus=bus1.3     conn=wye kV=7.9677 kva=3500 %R=0.00100000 NumTaps=32 MaxTap=1.1000 MinTap=0.9000

//------------------ tap controls ------------------------------//
New RegControl.Reg_contr_A Transformer=sub_regulator_A bus=bus1.1 Winding=2 vReg=123.00000 R=0.00000 X=0.00000 Band=2  PTratio=66.395279 vLimit=129.00000
New RegControl.Reg_contr_B Transformer=sub_regulator_B bus=bus1.2 Winding=2 vReg=123.00000 R=0.00000 X=0.00000 Band=2  PTratio=66.395279 vLimit=129.00000
New RegControl.Reg_contr_C Transformer=sub_regulator_C bus=bus1.3 Winding=2 vReg=123.00000 R=0.00000 X=0.00000 Band=2  PTratio=66.395279 vLimit=129.00000

// For the linecode name, OH denotes overhead, UG denotes underground, 1p denotes 1 phase, 3p denotes 3 phases, "type+number" denotes conductor type.
//--------------------------------------------------------------------------------------//
//            three-phase overhead line using type 1 overhead conductor
//--------------------------------------------------------------------------------------//
New LineCode.OH_3p_type1 nphases= 3 Units= mi
 ~ Rmatrix= (0.615927 | 0.170927 0.615927 | 0.170927 0.170927 0.615927 )
 ~ Xmatrix= (1.209389 | 0.433188 1.209389 | 0.433188 0.433188 1.209389 )

//--------------------------------------------------------------------------------------//
//            two-phase overhead line using type 2 overhead conductor
//--------------------------------------------------------------------------------------//
New LineCode.OH_2p_type2 nphases= 2 Units= mi
 ~ Rmatrix= (0.589255 | 0.169495 0.589255 )
 ~ Xmatrix= (1.074856 | 0.387876 1.074856 )

//--------------------------------------------------------------------------------------//
//            one-phase overhead line using type 2 overhead conductor
//--------------------------------------------------------------------------------------//
New LineCode.OH_1p_type2 nphases= 1 Units= mi
 ~ Rmatrix= (0.592473 )
 ~ Xmatrix= (1.065821 )

//--------------------------------------------------------------------------------------//
//           three-phase overhead line using type 5 overhead conductor
//--------------------------------------------------------------------------------------//
New LineCode.OH_3p_type5 nphases= 3 Units= mi
 ~ Rmatrix= (1.191602 | 0.234849 1.191602 | 0.234849 0.234849 1.191602 )
 ~ Xmatrix= (1.209452 | 0.489263 1.209452 | 0.489263 0.489263 1.209452 )

//--------------------------------------------------------------------------------------//
//           one-phase overhead line using type 5 overhead conductor
//--------------------------------------------------------------------------------------//
New LineCode.OH_1p_type5 nphases= 1 Units= mi
 ~ Rmatrix= (1.194260 )
 ~ Xmatrix= (1.205420 )

//--------------------------------------------------------------------------------------//
//           three-phase underground cable using type 1 underground conductor
//--------------------------------------------------------------------------------------//
New LineCode.UG_3p_type1 nphases= 3 Units= mi
 ~ Rmatrix= (1.009423 | 0.409732 1.009423 | 0.409732 0.409732 1.009423 )
 ~ Xmatrix= (0.493164 | 0.100849 0.493164 | 0.100849 0.100849 0.493164 )
 ~ Cmatrix= (286.101593 | 0.000000 286.101593 | 0.000000 0.000000 286.101593 )

//--------------------------------------------------------------------------------------//
//           three-phase underground cable using type 2 underground conductor
//--------------------------------------------------------------------------------------//
New LineCode.UG_3p_type2 nphases= 3 Units= mi
 ~ Rmatrix= (1.692577 | 0.550087 1.692577 | 0.550087 0.550087 1.692577 )
 ~ Xmatrix= (0.791756 | 0.344931 0.791756 | 0.344931 0.344931 0.791756 )
 ~ Cmatrix= (207.880539 | 0.000000 207.880539 | 0.000000 0.000000 207.880539 )

//--------------------------------------------------------------------------------------//
//            one-phase underground cable using type 2 underground conductor
//--------------------------------------------------------------------------------------//
New LineCode.UG_1p_type2 nphases= 1 Units= mi
 ~ Rmatrix= (1.675338 )
 ~ Xmatrix= (1.210007 )
 ~ Cmatrix= (207.880539 )

//--------------------------------------------------------------------------------------//
//            line repersenting transformer windings=2 kva=112.5
//--------------------------------------------------------------------------------------//
New LineCode.T_type1 nphases= 3 Units= Ft
 ~ Rmatrix= (41.13504 | 0 41.13504 | 0 0 41.13504 )
 ~ Xmatrix= (65.51136 | 0 65.51136 | 0 0 65.51136 )

//--------------------------------------------------------------------------------------//
//            line repersenting transformer windings=2 kva=75.0
//--------------------------------------------------------------------------------------//
New LineCode.T_type2 nphases= 3 Units= Ft
 ~ Rmatrix= (57.63984 | 0 57.63984 | 0 0 57.63984 )
 ~ Xmatrix= (48.49872 | 0 48.49872 | 0 0 48.49872 )



//--------------------------------------------------------------------------------------//
//            line repersenting transformer windings=99 kva=75.0
//--------------------------------------------------------------------------------------//
New LineCode.T_type3 nphases= 1 Units= Ft
 ~ Rmatrix= (25.392 )
 ~ Xmatrix= (53.3232)

//--------------------------------------------------------------------------------------//
//            line repersenting transformer windings=99 kva=25.0
//--------------------------------------------------------------------------------------//
New LineCode.T_type4 nphases= 1 Units= Ft
 ~ Rmatrix= (101.31408 )
 ~ Xmatrix= (143.21088)

//--------------------------------------------------------------------------------------//
//            line repersenting transformer windings=2 kva=45.0
//--------------------------------------------------------------------------------------//
New LineCode.T_type5 nphases= 3 Units= Ft
 ~ Rmatrix= (106.6464 | 0 106.6464 | 0 0 106.6464 )
 ~ Xmatrix= (73.2136 | 0 73.2136 | 0 0 73.2136 )

//--------------------------------------------------------------------------------------//
//            line repersenting transformer windings=3 kva=25.0
//--------------------------------------------------------------------------------------//
New LineCode.T_type6 nphases= 1 Units= Ft
 ~ Rmatrix= (33.773617 )
 ~ Xmatrix= (35.805113)

//--------------------------------------------------------------------------------------//
//            line repersenting transformer windings=3 kva=37.5
//--------------------------------------------------------------------------------------//
New LineCode.T_type7 nphases= 1 Units= Ft
 ~ Rmatrix= (20.145667 )
 ~ Xmatrix= (21.965548)

//--------------------------------------------------------------------------------------//
//            line repersenting transformer windings=3 kva=50.0
//--------------------------------------------------------------------------------------//
New LineCode.T_type8 nphases= 1 Units= Ft
 ~ Rmatrix= (13.966534 )
 ~ Xmatrix= (17.140746)

//--------------------------------------------------------------------------------------//
//            line repersenting transformer windings=2 kva=300.0
//--------------------------------------------------------------------------------------//
New LineCode.T_type9 nphases= 3 Units= Ft
 ~ Rmatrix= (11.4264 | 0 11.4264 | 0 0 11.4264 )
 ~ Xmatrix= (28.566 | 0 28.566 | 0 0 28.566 )

//--------------------------------------------------------------------------------------//
//            line repersenting transformer windings=3 kva=15.0
//--------------------------------------------------------------------------------------//
New LineCode.T_type10 nphases= 1 Units= Ft
 ~ Rmatrix= (70.255896 )
 ~ Xmatrix= (40.629916)

//--------------------------------------------------------------------------------------//
//            line repersenting transformer windings=2 kva=225.0
//--------------------------------------------------------------------------------------//
New LineCode.T_type11 nphases= 3 Units= Ft
 ~ Rmatrix= (18.6208 | 0 18.6208 | 0 0 18.6208 )
 ~ Xmatrix= (39.3576 | 0 39.3576 | 0 0 39.3576 )

//--------------------------------------------------------------------------------------//
//            line repersenting transformer windings=3 kva=100.0
//--------------------------------------------------------------------------------------//
New LineCode.T_type12 nphases= 1 Units= Ft
 ~ Rmatrix= (7.110235 )
 ~ Xmatrix= (10.665353)

//--------------------------------------------------------------------------------------//
//            line repersenting transformer windings=2 kva=500.0
//--------------------------------------------------------------------------------------//
New LineCode.T_type13 nphases= 3 Units= Ft
 ~ Rmatrix= (6.09408 | 0 6.09408 | 0 0 6.09408 )
 ~ Xmatrix= (22.47192 | 0 22.47192 | 0 0 22.47192 )

//***************************************************************************************//
//                                             Feeder A
//***************************************************************************************//
New Line.L_1001_1002 phases=3 Bus1=bus1001.1.2.3 Bus2=bus1002.1.2.3  length=2967 units=Ft LineCode=UG_3p_type1
New Line.L_1002_1003 phases=3 Bus1=bus1002.1.2.3 Bus2=bus1003.1.2.3  length=372 units=Ft LineCode=UG_3p_type2
New Line.L_1002_1004 phases=3 Bus1=bus1002.1.2.3 Bus2=bus1004.1.2.3  length=638 units=Ft LineCode=OH_3p_type1
New Line.L_1004_1005 phases=3 Bus1=bus1004.1.2.3 Bus2=bus1005.1.2.3  length=394 units=Ft LineCode=OH_3p_type1
New Line.L_1005_1006 phases=3 Bus1=bus1005.1.2.3 Bus2=bus1006.1.2.3  length=1049 units=Ft LineCode=OH_3p_type1
New Line.L_1006_1007 phases=2 Bus1=bus1006.1.2 Bus2=bus1007.1.2  length=2000 units=Ft LineCode=OH_2p_type2
New Line.L_1006_1008 phases=3 Bus1=bus1006.1.2.3 Bus2=bus1008.1.2.3  length=454 units=Ft LineCode=OH_3p_type1
New Line.L_1008_1009 phases=3 Bus1=bus1008.1.2.3 Bus2=bus1009.1.2.3  length=1082 units=Ft LineCode=OH_3p_type1
New Line.L_1009_1010 phases=3 Bus1=bus1009.1.2.3 Bus2=bus1010.1.2.3  length=169 units=Ft LineCode=OH_3p_type1
New Line.L_1009_1011 phases=3 Bus1=bus1009.1.2.3 Bus2=bus1011.1.2.3  length=60 units=Ft LineCode=UG_3p_type2
New Line.L_1011_1012 phases=3 Bus1=bus1011.1.2.3 Bus2=bus1012.1.2.3  length=60 units=Ft LineCode=UG_3p_type2
New Line.L_1012_1013 phases=3 Bus1=bus1012.1.2.3 Bus2=bus1013.1.2.3  length=306 units=Ft LineCode=UG_3p_type2
New Line.L_1013_1014 phases=1 Bus1=bus1013.2.0 Bus2=bus1014.2.0  length=208 units=Ft LineCode=UG_1p_type2
New Line.L_1014_1015 phases=1 Bus1=bus1014.2.0 Bus2=bus1015.2.0  length=126 units=Ft LineCode=UG_1p_type2
New Line.L_1013_1016 phases=1 Bus1=bus1013.3.0 Bus2=bus1016.3.0  length=468 units=Ft LineCode=UG_1p_type2
New Line.L_1016_1017 phases=1 Bus1=bus1016.3.0 Bus2=bus1017.3.0  length=71 units=Ft LineCode=UG_1p_type2
New Line.L_1003_1003_L phases=3 Bus1=bus1003.1.2.3.0 Bus2=T_bus1003_L.1.2.3.0  length=1 units=Ft LineCode=T_type1
New Line.L_1004_1004_L phases=3 Bus1=bus1004.1.2.3.0 Bus2=T_bus1004_L.1.2.3.0  length=1 units=Ft LineCode=T_type2
New Line.L_1005_1005_L phases=3 Bus1=bus1005.1.2.3.0 Bus2=T_bus1005_L.1.2.3.0  length=1 units=Ft LineCode=T_type2
New Line.L_1006_1006_L_1 phases=1 Bus1=bus1006.1.0 Bus2=T_bus1006_L.1.0  length=1 units=Ft LineCode=T_type3
New Line.L_1006_1006_L_2 phases=1 Bus1=bus1006.2.0 Bus2=T_bus1006_L.2.0  length=1 units=Ft LineCode=T_type3
New Line.L_1007_1007_L_1 phases=1 Bus1=bus1007.1.0 Bus2=T_bus1007_L.1.0  length=1 units=Ft LineCode=T_type4
New Line.L_1007_1007_L_2 phases=1 Bus1=bus1007.2.0 Bus2=T_bus1007_L.2.0  length=1 units=Ft LineCode=T_type4
New Line.L_1008_1008_L phases=3 Bus1=bus1008.1.2.3.0 Bus2=T_bus1008_L.1.2.3.0  length=1 units=Ft LineCode=T_type5
New Line.L_1009_1009_L phases=3 Bus1=bus1009.1.2.3.0 Bus2=T_bus1009_L.1.2.3.0  length=1 units=Ft LineCode=T_type2
New Line.L_1010_1010_L phases=3 Bus1=bus1010.1.2.3.0 Bus2=T_bus1010_L.1.2.3.0  length=1 units=Ft LineCode=T_type5
New Line.L_1011_1011_L phases=1 Bus1=bus1011.1.0 Bus2=T_bus1011_L.1.0  length=1 units=Ft LineCode=T_type6
New Line.L_1012_1012_L phases=1 Bus1=bus1012.2.0 Bus2=T_bus1012_L.2.0  length=1 units=Ft LineCode=T_type7
New Line.L_1013_1013_L phases=3 Bus1=bus1013.1.2.3.0 Bus2=T_bus1013_L.1.2.3.0  length=1 units=Ft LineCode=T_type5
New Line.L_1014_1014_L phases=1 Bus1=bus1014.2.0 Bus2=T_bus1014_L.2.0  length=1 units=Ft LineCode=T_type6
New Line.L_1015_1015_L phases=1 Bus1=bus1015.2.0 Bus2=T_bus1015_L.2.0  length=1 units=Ft LineCode=T_type6
New Line.L_1016_1016_L phases=1 Bus1=bus1016.3.0 Bus2=T_bus1016_L.3.0  length=1 units=Ft LineCode=T_type8
New Line.L_1017_1017_L phases=1 Bus1=bus1017.3.0 Bus2=T_bus1017_L.3.0  length=1 units=Ft LineCode=T_type7

//***************************************************************************************//
//                                             Feeder B
//***************************************************************************************//
New Line.L_2001_2002 phases=3 Bus1=bus2001.1.2.3 Bus2=bus2002.1.2.3  length=1388 units=Ft LineCode=UG_3p_type1
New Line.L_2002_2003 phases=3 Bus1=bus2002.1.2.3 Bus2=bus2003.1.2.3  length=1281 units=Ft LineCode=OH_3p_type1
New Line.L_2003_2004 phases=3 Bus1=bus2003.1.2.3 Bus2=bus2004.1.2.3  length=798 units=Ft LineCode=OH_3p_type1
New Line.L_2004_2005 phases=3 Bus1=bus2004.1.2.3 Bus2=bus2005.1.2.3  length=317 units=Ft LineCode=OH_3p_type1
New Line.L_2005_2006 phases=3 Bus1=bus2005.1.2.3 Bus2=bus2006.1.2.3  length=145 units=Ft LineCode=OH_3p_type1
New Line.L_2006_2007 phases=1 Bus1=bus2006.1 Bus2=bus2007.1  length=245 units=Ft LineCode=OH_1p_type5
New Line.L_2007_2008 phases=1 Bus1=bus2007.1 Bus2=bus2008.1  length=125 units=Ft LineCode=UG_1p_type2
New Line.L_2007_2009 phases=1 Bus1=bus2007.1 Bus2=bus2009.1  length=161 units=Ft LineCode=OH_1p_type2
New Line.L_2006_2010 phases=3 Bus1=bus2006.1.2.3 Bus2=bus2010.1.2.3  length=170 units=Ft LineCode=OH_3p_type1
New Line.L_2010_2011 phases=3 Bus1=bus2010.1.2.3 Bus2=bus2011.1.2.3  length=275 units=Ft LineCode=OH_3p_type1
New Line.L_2011_2012 phases=3 Bus1=bus2011.1.2.3 Bus2=bus2012.1.2.3  length=503 units=Ft LineCode=OH_3p_type1
New Line.L_2013_2014 phases=3 Bus1=bus2013.1.2.3 Bus2=bus2014.1.2.3  length=268 units=Ft LineCode=OH_3p_type1
New Line.L_2014_2015 phases=1 Bus1=bus2014.2 Bus2=bus2015.2  length=120 units=Ft LineCode=UG_1p_type2
New Line.L_2014_2016 phases=3 Bus1=bus2014.1.2.3 Bus2=bus2016.1.2.3  length=257 units=Ft LineCode=OH_3p_type1
New Line.L_2016_2017 phases=3 Bus1=bus2016.1.2.3 Bus2=bus2017.1.2.3  length=174 units=Ft LineCode=UG_3p_type2
New Line.L_2017_2018 phases=3 Bus1=bus2017.1.2.3 Bus2=bus2018.1.2.3  length=447 units=Ft LineCode=UG_3p_type2
New Line.L_2013_2019 phases=3 Bus1=bus2013.1.2.3 Bus2=bus2019.1.2.3  length=45 units=Ft LineCode=OH_3p_type1
New Line.L_2019_2020 phases=1 Bus1=bus2019.2 Bus2=bus2020.2  length=642 units=Ft LineCode=UG_1p_type2
New Line.L_2019_2021 phases=3 Bus1=bus2019.1.2.3 Bus2=bus2021.1.2.3  length=43 units=Ft LineCode=OH_3p_type1
New Line.L_2021_2022 phases=1 Bus1=bus2021.3 Bus2=bus2022.3  length=205 units=Ft LineCode=UG_1p_type2
New Line.L_2022_2023 phases=1 Bus1=bus2022.3 Bus2=bus2023.3  length=150 units=Ft LineCode=UG_1p_type2
New Line.L_2023_2024 phases=1 Bus1=bus2023.3 Bus2=bus2024.3  length=408 units=Ft LineCode=UG_1p_type2
New Line.L_2024_2025 phases=1 Bus1=bus2024.3 Bus2=bus2025.3  length=331 units=Ft LineCode=UG_1p_type2
New Line.L_2026_2027 phases=3 Bus1=bus2026.1.2.3 Bus2=bus2027.1.2.3  length=369 units=Ft LineCode=OH_3p_type1
New Line.L_2027_2028 phases=3 Bus1=bus2027.1.2.3 Bus2=bus2028.1.2.3  length=285 units=Ft LineCode=UG_3p_type2
New Line.L_2028_2029 phases=3 Bus1=bus2028.1.2.3 Bus2=bus2029.1.2.3  length=131 units=Ft LineCode=UG_3p_type2
New Line.L_2029_2030 phases=3 Bus1=bus2029.1.2.3 Bus2=bus2030.1.2.3  length=165 units=Ft LineCode=UG_3p_type2
New Line.L_2030_2031 phases=3 Bus1=bus2030.1.2.3 Bus2=bus2031.1.2.3  length=245 units=Ft LineCode=UG_3p_type2
New Line.L_2027_2032 phases=3 Bus1=bus2027.1.2.3 Bus2=bus2032.1.2.3  length=149 units=Ft LineCode=OH_3p_type1
New Line.L_2032_2033 phases=3 Bus1=bus2032.1.2.3 Bus2=bus2033.1.2.3  length=289 units=Ft LineCode=OH_3p_type1
New Line.L_2033_2034 phases=3 Bus1=bus2033.1.2.3 Bus2=bus2034.1.2.3  length=185 units=Ft LineCode=OH_3p_type5
New Line.L_2033_2035 phases=3 Bus1=bus2033.1.2.3 Bus2=bus2035.1.2.3  length=160 units=Ft LineCode=OH_3p_type1
New Line.L_2035_2036 phases=3 Bus1=bus2035.1.2.3 Bus2=bus2036.1.2.3  length=160 units=Ft LineCode=OH_3p_type1
New Line.L_2036_2037 phases=3 Bus1=bus2036.1.2.3 Bus2=bus2037.1.2.3  length=80 units=Ft LineCode=OH_3p_type1
New Line.L_2037_2038 phases=3 Bus1=bus2037.1.2.3 Bus2=bus2038.1.2.3  length=192 units=Ft LineCode=OH_3p_type1
New Line.L_2038_2039 phases=3 Bus1=bus2038.1.2.3 Bus2=bus2039.1.2.3  length=800 units=Ft LineCode=OH_3p_type1
New Line.L_2039_2040 phases=3 Bus1=bus2039.1.2.3 Bus2=bus2040.1.2.3  length=309 units=Ft LineCode=OH_3p_type1
New Line.L_2040_2041 phases=3 Bus1=bus2040.1.2.3 Bus2=bus2041.1.2.3  length=383 units=Ft LineCode=OH_3p_type1
New Line.L_2039_2042 phases=3 Bus1=bus2039.1.2.3 Bus2=bus2042.1.2.3  length=35 units=Ft LineCode=UG_3p_type2
New Line.L_2042_2043 phases=3 Bus1=bus2042.1.2.3 Bus2=bus2043.1.2.3  length=158 units=Ft LineCode=UG_3p_type2
New Line.L_2043_2044 phases=3 Bus1=bus2043.1.2.3 Bus2=bus2044.1.2.3  length=342 units=Ft LineCode=UG_3p_type2
New Line.L_2044_2045 phases=1 Bus1=bus2044.2 Bus2=bus2045.2  length=323 units=Ft LineCode=UG_1p_type2
New Line.L_2045_2046 phases=1 Bus1=bus2045.2 Bus2=bus2046.2  length=330 units=Ft LineCode=UG_1p_type2
New Line.L_2045_2047 phases=1 Bus1=bus2045.2 Bus2=bus2047.2  length=189 units=Ft LineCode=UG_1p_type2
New Line.L_2047_2048 phases=1 Bus1=bus2047.2 Bus2=bus2048.2  length=259 units=Ft LineCode=UG_1p_type2
New Line.L_2044_2049 phases=3 Bus1=bus2044.1.2.3 Bus2=bus2049.1.2.3  length=130 units=Ft LineCode=UG_3p_type2
New Line.L_2049_2050 phases=3 Bus1=bus2049.1.2.3 Bus2=bus2050.1.2.3  length=124 units=Ft LineCode=UG_3p_type2
New Line.L_2050_2051 phases=3 Bus1=bus2050.1.2.3 Bus2=bus2051.1.2.3  length=139 units=Ft LineCode=UG_3p_type2
New Line.L_2051_2052 phases=3 Bus1=bus2051.1.2.3 Bus2=bus2052.1.2.3  length=134 units=Ft LineCode=UG_3p_type2
New Line.L_2044_2053 phases=3 Bus1=bus2044.1.2.3 Bus2=bus2053.1.2.3  length=464 units=Ft LineCode=UG_3p_type2
New Line.L_2053_2054 phases=3 Bus1=bus2053.1.2.3 Bus2=bus2054.1.2.3  length=139 units=Ft LineCode=UG_3p_type2
New Line.L_2054_2055 phases=1 Bus1=bus2054.1.2.3 Bus2=bus2055.1.2.3  length=156 units=Ft LineCode=UG_3p_type2
New Line.L_2055_2056 phases=1 Bus1=bus2055.1.2.3 Bus2=bus2056.1.2.3  length=204 units=Ft LineCode=UG_3p_type2
New Line.L_2053_2057 phases=3 Bus1=bus2053.1.2.3 Bus2=bus2057.1.2.3  length=761 units=Ft LineCode=UG_3p_type2
New Line.L_2057_2058 phases=3 Bus1=bus2057.1.2.3 Bus2=bus2058.1.2.3  length=407 units=Ft LineCode=UG_3p_type2
New Line.L_2057_2059 phases=3 Bus1=bus2057.1.2.3 Bus2=bus2059.1.2.3  length=685 units=Ft LineCode=UG_3p_type2
New Line.L_2059_2060 phases=3 Bus1=bus2059.1.2.3 Bus2=bus2060.1.2.3  length=304 units=Ft LineCode=UG_3p_type2
New Line.L_2002_2002_L phases=3 Bus1=bus2002.1.2.3 Bus2=T_bus2002_L.1.2.3  length=1 units=Ft LineCode=T_type9
New Line.L_2003_2003_L phases=3 Bus1=bus2003.1.2.3.0 Bus2=T_bus2003_L.1.2.3.0  length=1 units=Ft LineCode=T_type2
New Line.L_2005_2005_L phases=3 Bus1=bus2005.1.2.3.0 Bus2=T_bus2005_L.1.2.3.0  length=1 units=Ft LineCode=T_type5
New Line.L_2008_2008_L phases=1 Bus1=bus2008.1.0 Bus2=T_bus2008_L.1.0  length=1 units=Ft LineCode=T_type6
New Line.L_2009_2009_L phases=1 Bus1=bus2009.1.0 Bus2=T_bus2009_L.1.0  length=1 units=Ft LineCode=T_type6
New Line.L_2010_2010_L phases=3 Bus1=bus2010.1.2.3.0 Bus2=T_bus2010_L.1.2.3.0  length=1 units=Ft LineCode=T_type5
New Line.L_2011_2011_L phases=3 Bus1=bus2011.1.2.3.0 Bus2=T_bus2011_L.1.2.3.0  length=1 units=Ft LineCode=T_type5
New Line.L_2014_2014_L phases=1 Bus1=bus2014.2.0 Bus2=T_bus2014_L.2.0  length=1 units=Ft LineCode=T_type7
New Line.L_2015_2015_L phases=1 Bus1=bus2015.2.0 Bus2=T_bus2015_L.2.0  length=1 units=Ft LineCode=T_type6
New Line.L_2016_2016_L phases=1 Bus1=bus2016.2.0 Bus2=T_bus2016_L.2.0  length=1 units=Ft LineCode=T_type6
New Line.L_2017_2017_L phases=1 Bus1=bus2017.2.0 Bus2=T_bus2017_L.2.0  length=1 units=Ft LineCode=T_type6
New Line.L_2018_2018_L phases=1 Bus1=bus2018.2.0 Bus2=T_bus2018_L.2.0  length=1 units=Ft LineCode=T_type6
New Line.L_2020_2020_L phases=1 Bus1=bus2020.2.0 Bus2=T_bus2020_L.2.0  length=1 units=Ft LineCode=T_type6
New Line.L_2022_2022_L phases=1 Bus1=bus2022.3.0 Bus2=T_bus2022_L.3.0  length=1 units=Ft LineCode=T_type6
New Line.L_2023_2023_L phases=1 Bus1=bus2023.3.0 Bus2=T_bus2023_L.3.0  length=1 units=Ft LineCode=T_type10
New Line.L_2024_2024_L phases=1 Bus1=bus2024.3.0 Bus2=T_bus2024_L.3.0  length=1 units=Ft LineCode=T_type6
New Line.L_2025_2025_L phases=1 Bus1=bus2025.3.0 Bus2=T_bus2025_L.3.0  length=1 units=Ft LineCode=T_type6
New Line.L_2028_2028_L phases=1 Bus1=bus2028.1.0 Bus2=T_bus2028_L.1.0  length=1 units=Ft LineCode=T_type6
New Line.L_2029_2029_L phases=3 Bus1=bus2029.1.2.3.0 Bus2=T_bus2029_L.1.2.3.0  length=1 units=Ft LineCode=T_type2
New Line.L_2030_2030_L phases=3 Bus1=bus2030.1.2.3.0 Bus2=T_bus2030_L.1.2.3.0  length=1 units=Ft LineCode=T_type2
New Line.L_2031_2031_L phases=1 Bus1=bus2031.1.0 Bus2=T_bus2031_L.1.0  length=1 units=Ft LineCode=T_type6
New Line.L_2032_2032_L phases=3 Bus1=bus2032.1.2.3.0 Bus2=T_bus2032_L.1.2.3.0  length=1 units=Ft LineCode=T_type5
New Line.L_2034_2034_L phases=3 Bus1=bus2034.1.2.3.0 Bus2=T_bus2034_L.1.2.3.0  length=1 units=Ft LineCode=T_type5
New Line.L_2035_2035_L phases=3 Bus1=bus2035.1.2.3.0 Bus2=T_bus2035_L.1.2.3.0  length=1 units=Ft LineCode=T_type2
New Line.L_2037_2037_L phases=3 Bus1=bus2037.1.2.3.0 Bus2=T_bus2037_L.1.2.3.0  length=1 units=Ft LineCode=T_type5
New Line.L_2040_2040_L phases=3 Bus1=bus2040.1.2.3.0 Bus2=T_bus2040_L.1.2.3.0  length=1 units=Ft LineCode=T_type9
New Line.L_2041_2041_L phases=3 Bus1=bus2041.1.2.3.0 Bus2=T_bus2041_L.1.2.3.0  length=1 units=Ft LineCode=T_type5
New Line.L_2042_2042_L phases=3 Bus1=bus2042.1.2.3.0 Bus2=T_bus2042_L.1.2.3.0  length=1 units=Ft LineCode=T_type2
New Line.L_2043_2043_L phases=3 Bus1=bus2043.1.2.3.0 Bus2=T_bus2043_L.1.2.3.0  length=1 units=Ft LineCode=T_type2
New Line.L_2045_2045_L phases=1 Bus1=bus2045.2.0 Bus2=T_bus2045_L.2.0  length=1 units=Ft LineCode=T_type10
New Line.L_2046_2046_L phases=1 Bus1=bus2046.2.0 Bus2=T_bus2046_L.2.0  length=1 units=Ft LineCode=T_type8
New Line.L_2047_2047_L phases=1 Bus1=bus2047.2.0 Bus2=T_bus2047_L.2.0  length=1 units=Ft LineCode=T_type8
New Line.L_2048_2048_L phases=1 Bus1=bus2048.2.0 Bus2=T_bus2048_L.2.0  length=1 units=Ft LineCode=T_type8
New Line.L_2049_2049_L phases=1 Bus1=bus2049.3.0 Bus2=T_bus2049_L.3.0  length=1 units=Ft LineCode=T_type7
New Line.L_2050_2050_L phases=1 Bus1=bus2050.3.0 Bus2=T_bus2050_L.3.0  length=1 units=Ft LineCode=T_type7
New Line.L_2051_2051_L phases=1 Bus1=bus2051.3.0 Bus2=T_bus2051_L.3.0  length=1 units=Ft LineCode=T_type7
New Line.L_2052_2052_L phases=3 Bus1=bus2052.1.2.3.0 Bus2=T_bus2052_L.1.2.3.0  length=1 units=Ft LineCode=T_type11
New Line.L_2053_2053_L phases=3 Bus1=bus2053.1.2.3.0 Bus2=T_bus2053_L.1.2.3.0  length=1 units=Ft LineCode=T_type11
New Line.L_2054_2054_L phases=1 Bus1=bus2054.1.0 Bus2=T_bus2054_L.1.0  length=1 units=Ft LineCode=T_type7
New Line.L_2055_2055_L phases=1 Bus1=bus2055.1.0 Bus2=T_bus2055_L.1.0  length=1 units=Ft LineCode=T_type8
New Line.L_2056_2056_L phases=1 Bus1=bus2056.1.0 Bus2=T_bus2056_L.1.0  length=1 units=Ft LineCode=T_type6
New Line.L_2058_2058_L phases=3 Bus1=bus2058.1.2.3.0 Bus2=T_bus2058_L.1.2.3.0  length=1 units=Ft LineCode=T_type9
New Line.L_2059_2059_L phases=1 Bus1=bus2059.2.0 Bus2=T_bus2059_L.2.0  length=1 units=Ft LineCode=T_type6
New Line.L_2060_2060_L phases=1 Bus1=bus2060.2.0 Bus2=T_bus2060_L.2.0  length=1 units=Ft LineCode=T_type6

//***************************************************************************************//
//                                             Feeder C
//***************************************************************************************//
New Line.L_3001_3003 phases=3 Bus1=bus3001.1.2.3 Bus2=bus3003.1.2.3  length=2307 units=Ft LineCode=UG_3p_type1
New Line.L_3003_3002 phases=3 Bus1=bus3003.1.2.3 Bus2=bus3002.1.2.3  length=85 units=Ft LineCode=UG_3p_type2
New Line.L_3003_3004 phases=3 Bus1=bus3003.1.2.3 Bus2=bus3004.1.2.3  length=81 units=Ft LineCode=UG_3p_type2
New Line.L_3003_3005 phases=3 Bus1=bus3003.1.2.3 Bus2=bus3005.1.2.3  length=1997 units=Ft LineCode=UG_3p_type1
New Line.L_3005_3006 phases=3 Bus1=bus3005.1.2.3 Bus2=bus3006.1.2.3  length=311 units=Ft LineCode=OH_3p_type1
New Line.L_3006_3007 phases=3 Bus1=bus3006.1.2.3 Bus2=bus3007.1.2.3  length=370 units=Ft LineCode=OH_3p_type1
New Line.L_3005_3008 phases=3 Bus1=bus3005.1.2.3 Bus2=bus3008.1.2.3  length=136 units=Ft LineCode=OH_3p_type1
New Line.L_3008_3009 phases=1 Bus1=bus3008.1 Bus2=bus3009.1  length=161 units=Ft LineCode=OH_1p_type5
New Line.L_3009_3010 phases=1 Bus1=bus3009.1 Bus2=bus3010.1  length=347 units=Ft LineCode=OH_1p_type5
New Line.L_3010_3011 phases=1 Bus1=bus3010.1 Bus2=bus3011.1  length=265 units=Ft LineCode=OH_1p_type5
New Line.L_3011_3012 phases=1 Bus1=bus3011.1 Bus2=bus3012.1  length=312 units=Ft LineCode=OH_1p_type5
New Line.L_3008_3013 phases=1 Bus1=bus3008.2 Bus2=bus3013.2  length=170 units=Ft LineCode=OH_1p_type5
New Line.L_3013_3014 phases=1 Bus1=bus3013.2 Bus2=bus3014.2  length=295 units=Ft LineCode=OH_1p_type5
New Line.L_3008_3015 phases=3 Bus1=bus3008.1.2.3 Bus2=bus3015.1.2.3  length=322 units=Ft LineCode=OH_3p_type1
New Line.L_3015_3016 phases=1 Bus1=bus3015.2 Bus2=bus3016.2  length=210 units=Ft LineCode=OH_1p_type5
New Line.L_3016_3017 phases=1 Bus1=bus3016.2 Bus2=bus3017.2  length=259 units=Ft LineCode=OH_1p_type5
New Line.L_3015_3018 phases=1 Bus1=bus3015.3 Bus2=bus3018.3  length=181 units=Ft LineCode=OH_1p_type5
New Line.L_3018_3019 phases=1 Bus1=bus3018.3 Bus2=bus3019.3  length=281 units=Ft LineCode=OH_1p_type5
New Line.L_3019_3020 phases=1 Bus1=bus3019.3 Bus2=bus3020.3  length=307 units=Ft LineCode=OH_1p_type5
New Line.L_3020_3021 phases=1 Bus1=bus3020.3 Bus2=bus3021.3  length=303 units=Ft LineCode=OH_1p_type5
New Line.L_3015_3022 phases=3 Bus1=bus3015.1.2.3 Bus2=bus3022.1.2.3  length=289 units=Ft LineCode=OH_3p_type1
New Line.L_3022_3023 phases=1 Bus1=bus3022.1 Bus2=bus3023.1  length=181 units=Ft LineCode=OH_1p_type5
New Line.L_3023_3024 phases=1 Bus1=bus3023.1 Bus2=bus3024.1  length=320 units=Ft LineCode=OH_1p_type5
New Line.L_3024_3025 phases=1 Bus1=bus3024.1 Bus2=bus3025.1  length=331 units=Ft LineCode=OH_1p_type5
New Line.L_3022_3026 phases=1 Bus1=bus3022.1 Bus2=bus3026.1  length=164 units=Ft LineCode=OH_1p_type5
New Line.L_3026_3027 phases=1 Bus1=bus3026.1 Bus2=bus3027.1  length=368 units=Ft LineCode=OH_1p_type5
New Line.L_3027_3028 phases=1 Bus1=bus3027.1 Bus2=bus3028.1  length=241 units=Ft LineCode=OH_1p_type5
New Line.L_3028_3029 phases=1 Bus1=bus3028.1 Bus2=bus3029.1  length=317 units=Ft LineCode=OH_1p_type5
New Line.L_3022_3030 phases=3 Bus1=bus3022.1.2.3 Bus2=bus3030.1.2.3  length=304 units=Ft LineCode=OH_3p_type1
New Line.L_3030_3035 phases=3 Bus1=bus3030.1.2.3 Bus2=bus3035.1.2.3  length=103 units=Ft LineCode=OH_3p_type1
New Line.L_3035_3036 phases=3 Bus1=bus3035.1.2.3 Bus2=bus3036.1.2.3  length=271 units=Ft LineCode=OH_3p_type1
New Line.L_3036_3037 phases=3 Bus1=bus3036.1.2.3 Bus2=bus3037.1.2.3  length=136 units=Ft LineCode=OH_3p_type1
New Line.L_3037_3038 phases=3 Bus1=bus3037.1.2.3 Bus2=bus3038.1.2.3  length=252 units=Ft LineCode=OH_3p_type1
New Line.L_3038_3039 phases=3 Bus1=bus3038.1.2.3 Bus2=bus3039.1.2.3  length=235 units=Ft LineCode=OH_3p_type1
New Line.L_3039_3053 phases=3 Bus1=bus3039.1.2.3 Bus2=bus3053.1.2.3  length=263 units=Ft LineCode=OH_3p_type1
New Line.L_3053_3054 phases=3 Bus1=bus3053.1.2.3 Bus2=bus3054.1.2.3  length=280 units=Ft LineCode=UG_3p_type2
New Line.L_3053_3055 phases=1 Bus1=bus3053.2 Bus2=bus3055.2  length=1335 units=Ft LineCode=UG_1p_type2
New Line.L_3055_3056 phases=1 Bus1=bus3055.2 Bus2=bus3056.2  length=128 units=Ft LineCode=UG_1p_type2
New Line.L_3056_3057 phases=1 Bus1=bus3056.2 Bus2=bus3057.2  length=178 units=Ft LineCode=UG_1p_type2
New Line.L_3057_3058 phases=1 Bus1=bus3057.2 Bus2=bus3058.2  length=178 units=Ft LineCode=UG_1p_type2
New Line.L_3058_3059 phases=1 Bus1=bus3058.2 Bus2=bus3059.2  length=274 units=Ft LineCode=UG_1p_type2
New Line.L_3059_3060 phases=1 Bus1=bus3059.2 Bus2=bus3060.2  length=77 units=Ft LineCode=UG_1p_type2
New Line.L_3060_3061 phases=1 Bus1=bus3060.2 Bus2=bus3061.2  length=184 units=Ft LineCode=UG_1p_type2
New Line.L_3055_3062 phases=1 Bus1=bus3055.2 Bus2=bus3062.2  length=443 units=Ft LineCode=UG_1p_type2
New Line.L_3062_3063 phases=1 Bus1=bus3062.2 Bus2=bus3063.2  length=198 units=Ft LineCode=UG_1p_type2
New Line.L_3063_3064 phases=1 Bus1=bus3063.2 Bus2=bus3064.2  length=157 units=Ft LineCode=UG_1p_type2
New Line.L_3064_3065 phases=1 Bus1=bus3064.2 Bus2=bus3065.2  length=205 units=Ft LineCode=UG_1p_type2
New Line.L_3065_3066 phases=1 Bus1=bus3065.2 Bus2=bus3066.2  length=123 units=Ft LineCode=UG_1p_type2
New Line.L_3066_3067 phases=1 Bus1=bus3066.2 Bus2=bus3067.2  length=274 units=Ft LineCode=UG_1p_type2
New Line.L_3030_3040 phases=3 Bus1=bus3030.1.2.3 Bus2=bus3040.1.2.3  length=332 units=Ft LineCode=OH_3p_type1
New Line.L_3040_3044 phases=1 Bus1=bus3040.3 Bus2=bus3044.3  length=144 units=Ft LineCode=OH_1p_type5
New Line.L_3044_3045 phases=1 Bus1=bus3044.3 Bus2=bus3045.3  length=393 units=Ft LineCode=OH_1p_type5
New Line.L_3040_3041 phases=1 Bus1=bus3040.3 Bus2=bus3041.3  length=121 units=Ft LineCode=OH_1p_type5
New Line.L_3041_3042 phases=1 Bus1=bus3041.3 Bus2=bus3042.3  length=328 units=Ft LineCode=OH_1p_type5
New Line.L_3042_3043 phases=1 Bus1=bus3042.3 Bus2=bus3043.3  length=418 units=Ft LineCode=OH_1p_type5
New Line.L_3040_3046 phases=3 Bus1=bus3040.1.2.3 Bus2=bus3046.1.2.3  length=329 units=Ft LineCode=OH_3p_type1
New Line.L_3046_3047 phases=3 Bus1=bus3046.1.2.3 Bus2=bus3047.1.2.3  length=219 units=Ft LineCode=OH_3p_type1
New Line.L_3046_3048 phases=3 Bus1=bus3046.1.2.3 Bus2=bus3048.1.2.3  length=130 units=Ft LineCode=OH_3p_type1
New Line.L_3048_3049 phases=3 Bus1=bus3048.1.2.3 Bus2=bus3049.1.2.3  length=226 units=Ft LineCode=OH_3p_type1
New Line.L_3049_3050 phases=3 Bus1=bus3049.1.2.3 Bus2=bus3050.1.2.3  length=167 units=Ft LineCode=OH_3p_type1
New Line.L_3050_3051 phases=3 Bus1=bus3050.1.2.3 Bus2=bus3051.1.2.3  length=360 units=Ft LineCode=OH_3p_type1
New Line.L_3051_3052 phases=3 Bus1=bus3051.1.2.3 Bus2=bus3052.1.2.3  length=292 units=Ft LineCode=OH_3p_type1
New Line.L_3030_3031 phases=3 Bus1=bus3030.1.2.3 Bus2=bus3031.1.2.3  length=243 units=Ft LineCode=OH_3p_type1
New Line.L_3031_3032 phases=3 Bus1=bus3031.1.2.3 Bus2=bus3032.1.2.3  length=251 units=Ft LineCode=OH_3p_type1
New Line.L_3032_3033 phases=3 Bus1=bus3032.1.2.3 Bus2=bus3033.1.2.3  length=388 units=Ft LineCode=OH_3p_type1
New Line.L_3033_3034 phases=3 Bus1=bus3033.1.2.3 Bus2=bus3034.1.2.3  length=257 units=Ft LineCode=OH_3p_type1
New Line.L_3034_3068 phases=3 Bus1=bus3034.1.2.3 Bus2=bus3068.1.2.3  length=164 units=Ft LineCode=OH_3p_type1
New Line.L_3068_3069 phases=3 Bus1=bus3068.1.2.3 Bus2=bus3069.1.2.3  length=329 units=Ft LineCode=OH_3p_type1
New Line.L_3069_3070 phases=3 Bus1=bus3069.1.2.3 Bus2=bus3070.1.2.3  length=107 units=Ft LineCode=UG_3p_type2
New Line.L_3070_3071 phases=3 Bus1=bus3070.1.2.3 Bus2=bus3071.1.2.3  length=141 units=Ft LineCode=UG_3p_type2
New Line.L_3071_3072 phases=3 Bus1=bus3071.1.2.3 Bus2=bus3072.1.2.3  length=90 units=Ft LineCode=UG_3p_type2
New Line.L_3069_3073 phases=3 Bus1=bus3069.1.2.3 Bus2=bus3073.1.2.3  length=20 units=Ft LineCode=OH_3p_type1
New Line.L_3073_3074 phases=3 Bus1=bus3073.1.2.3 Bus2=bus3074.1.2.3  length=340 units=Ft LineCode=OH_3p_type1
New Line.L_3068_3075 phases=3 Bus1=bus3068.1.2.3 Bus2=bus3075.1.2.3  length=188 units=Ft LineCode=OH_3p_type1
New Line.L_3076_3077 phases=3 Bus1=bus3076.1.2.3 Bus2=bus3077.1.2.3  length=877 units=Ft LineCode=OH_3p_type1
New Line.L_3077_3078 phases=3 Bus1=bus3077.1.2.3 Bus2=bus3078.1.2.3  length=80 units=Ft LineCode=OH_3p_type1
New Line.L_3076_3079 phases=3 Bus1=bus3076.1.2.3 Bus2=bus3079.1.2.3  length=191 units=Ft LineCode=OH_3p_type1
New Line.L_3079_3080 phases=3 Bus1=bus3079.1.2.3 Bus2=bus3080.1.2.3  length=604 units=Ft LineCode=OH_3p_type1
New Line.L_3080_3081 phases=3 Bus1=bus3080.1.2.3 Bus2=bus3081.1.2.3  length=195 units=Ft LineCode=OH_3p_type1
New Line.L_3080_3082 phases=3 Bus1=bus3080.1.2.3 Bus2=bus3082.1.2.3  length=540 units=Ft LineCode=OH_3p_type1
New Line.L_3082_3083 phases=1 Bus1=bus3082.1 Bus2=bus3083.1  length=125 units=Ft LineCode=UG_1p_type2
New Line.L_3083_3084 phases=1 Bus1=bus3083.1 Bus2=bus3084.1  length=196 units=Ft LineCode=UG_1p_type2
New Line.L_3084_3085 phases=1 Bus1=bus3084.1 Bus2=bus3085.1  length=515 units=Ft LineCode=UG_1p_type2
New Line.L_3085_3086 phases=1 Bus1=bus3085.1 Bus2=bus3086.1  length=338 units=Ft LineCode=UG_1p_type2
New Line.L_3086_3087 phases=1 Bus1=bus3086.1 Bus2=bus3087.1  length=239 units=Ft LineCode=UG_1p_type2
New Line.L_3087_3088 phases=1 Bus1=bus3087.1 Bus2=bus3088.1  length=420 units=Ft LineCode=UG_1p_type2
New Line.L_3088_3089 phases=1 Bus1=bus3088.1 Bus2=bus3089.1  length=112 units=Ft LineCode=UG_1p_type2
New Line.L_3089_3090 phases=1 Bus1=bus3089.1 Bus2=bus3090.1  length=565 units=Ft LineCode=UG_1p_type2
New Line.L_3090_3091 phases=1 Bus1=bus3090.1 Bus2=bus3091.1  length=222 units=Ft LineCode=UG_1p_type2
New Line.L_3082_3092 phases=3 Bus1=bus3082.1.2.3 Bus2=bus3092.1.2.3  length=185 units=Ft LineCode=UG_3p_type2
New Line.L_3092_3093 phases=1 Bus1=bus3092.1 Bus2=bus3093.1  length=230 units=Ft LineCode=UG_1p_type2
New Line.L_3093_3094 phases=1 Bus1=bus3093.1 Bus2=bus3094.1  length=125 units=Ft LineCode=UG_1p_type2
New Line.L_3094_3095 phases=1 Bus1=bus3094.1 Bus2=bus3095.1  length=65 units=Ft LineCode=UG_1p_type2
New Line.L_3095_3096 phases=1 Bus1=bus3095.1 Bus2=bus3096.1  length=296 units=Ft LineCode=UG_1p_type2
New Line.L_3096_3097 phases=1 Bus1=bus3096.1 Bus2=bus3097.1  length=117 units=Ft LineCode=UG_1p_type2
New Line.L_3092_3098 phases=1 Bus1=bus3092.2 Bus2=bus3098.2  length=284 units=Ft LineCode=UG_1p_type2
New Line.L_3098_3099 phases=1 Bus1=bus3098.2 Bus2=bus3099.2  length=368 units=Ft LineCode=UG_1p_type2
New Line.L_3092_3100 phases=3 Bus1=bus3092.1.2.3 Bus2=bus3100.1.2.3  length=91 units=Ft LineCode=UG_3p_type2
New Line.L_3100_3101 phases=1 Bus1=bus3100.3 Bus2=bus3101.3  length=157 units=Ft LineCode=UG_1p_type2
New Line.L_3101_3102 phases=1 Bus1=bus3101.3 Bus2=bus3102.3  length=225 units=Ft LineCode=UG_1p_type2
New Line.L_3102_3103 phases=1 Bus1=bus3102.3 Bus2=bus3103.3  length=134 units=Ft LineCode=UG_1p_type2
New Line.L_3100_3104 phases=1 Bus1=bus3100.3 Bus2=bus3104.3  length=223 units=Ft LineCode=UG_1p_type2
New Line.L_3104_3105 phases=1 Bus1=bus3104.3 Bus2=bus3105.3  length=120 units=Ft LineCode=UG_1p_type2
New Line.L_3105_3106 phases=1 Bus1=bus3105.3 Bus2=bus3106.3  length=181 units=Ft LineCode=UG_1p_type2
New Line.L_3082_3107 phases=3 Bus1=bus3082.1.2.3 Bus2=bus3107.1.2.3  length=1461 units=Ft LineCode=UG_3p_type1
New Line.L_3107_3108 phases=1 Bus1=bus3107.1 Bus2=bus3108.1  length=466 units=Ft LineCode=UG_1p_type2
New Line.L_3108_3109 phases=1 Bus1=bus3108.1 Bus2=bus3109.1  length=136 units=Ft LineCode=UG_1p_type2
New Line.L_3109_3110 phases=1 Bus1=bus3109.1 Bus2=bus3110.1  length=152 units=Ft LineCode=UG_1p_type2
New Line.L_3110_3111 phases=1 Bus1=bus3110.1 Bus2=bus3111.1  length=276 units=Ft LineCode=UG_1p_type2
New Line.L_3111_3112 phases=1 Bus1=bus3111.1 Bus2=bus3112.1  length=328 units=Ft LineCode=UG_1p_type2
New Line.L_3107_3113 phases=1 Bus1=bus3107.2 Bus2=bus3113.2  length=245 units=Ft LineCode=UG_1p_type2
New Line.L_3113_3114 phases=1 Bus1=bus3113.2 Bus2=bus3114.2  length=149 units=Ft LineCode=UG_1p_type2
New Line.L_3114_3115 phases=1 Bus1=bus3114.2 Bus2=bus3115.2  length=331 units=Ft LineCode=UG_1p_type2
New Line.L_3113_3116 phases=1 Bus1=bus3113.2 Bus2=bus3116.2  length=456 units=Ft LineCode=UG_1p_type2
New Line.L_3116_3117 phases=1 Bus1=bus3116.2 Bus2=bus3117.2  length=112 units=Ft LineCode=UG_1p_type2
New Line.L_3107_3118 phases=3 Bus1=bus3107.1.2.3 Bus2=bus3118.1.2.3  length=2267 units=Ft LineCode=UG_3p_type1
New Line.L_3118_3119 phases=1 Bus1=bus3118.2 Bus2=bus3119.2  length=464 units=Ft LineCode=UG_1p_type2
New Line.L_3119_3120 phases=1 Bus1=bus3119.2 Bus2=bus3120.2  length=350 units=Ft LineCode=UG_1p_type2
New Line.L_3120_3121 phases=1 Bus1=bus3120.2 Bus2=bus3121.2  length=206 units=Ft LineCode=UG_1p_type2
New Line.L_3121_3122 phases=1 Bus1=bus3121.2 Bus2=bus3122.2  length=177 units=Ft LineCode=UG_1p_type2
New Line.L_3119_3123 phases=1 Bus1=bus3119.2 Bus2=bus3123.2  length=91 units=Ft LineCode=UG_1p_type2
New Line.L_3123_3124 phases=1 Bus1=bus3123.2 Bus2=bus3124.2  length=67 units=Ft LineCode=UG_1p_type2
New Line.L_3124_3125 phases=1 Bus1=bus3124.2 Bus2=bus3125.2  length=151 units=Ft LineCode=UG_1p_type2
New Line.L_3125_3126 phases=1 Bus1=bus3125.2 Bus2=bus3126.2  length=343 units=Ft LineCode=UG_1p_type2
New Line.L_3126_3127 phases=1 Bus1=bus3126.2 Bus2=bus3127.2  length=234 units=Ft LineCode=UG_1p_type2
New Line.L_3127_3128 phases=1 Bus1=bus3127.2 Bus2=bus3128.2  length=238 units=Ft LineCode=UG_1p_type2
New Line.L_3128_3129 phases=1 Bus1=bus3128.2 Bus2=bus3129.2  length=243 units=Ft LineCode=UG_1p_type2
New Line.L_3129_3130 phases=1 Bus1=bus3129.2 Bus2=bus3130.2  length=230 units=Ft LineCode=UG_1p_type2
New Line.L_3130_3131 phases=1 Bus1=bus3130.2 Bus2=bus3131.2  length=194 units=Ft LineCode=UG_1p_type2
New Line.L_3118_3132 phases=1 Bus1=bus3118.1 Bus2=bus3132.1  length=501 units=Ft LineCode=UG_1p_type2
New Line.L_3132_3133 phases=1 Bus1=bus3132.1 Bus2=bus3133.1  length=145 units=Ft LineCode=UG_1p_type2
New Line.L_3133_3134 phases=1 Bus1=bus3133.1 Bus2=bus3134.1  length=281 units=Ft LineCode=UG_1p_type2
New Line.L_3134_3135 phases=1 Bus1=bus3134.1 Bus2=bus3135.1  length=240 units=Ft LineCode=UG_1p_type2
New Line.L_3135_3136 phases=1 Bus1=bus3135.1 Bus2=bus3136.1  length=367 units=Ft LineCode=UG_1p_type2
New Line.L_3133_3137 phases=1 Bus1=bus3133.1 Bus2=bus3137.1  length=252 units=Ft LineCode=UG_1p_type2
New Line.L_3137_3138 phases=1 Bus1=bus3137.1 Bus2=bus3138.1  length=351 units=Ft LineCode=UG_1p_type2
New Line.L_3138_3139 phases=1 Bus1=bus3138.1 Bus2=bus3139.1  length=289 units=Ft LineCode=UG_1p_type2
New Line.L_3107_3140 phases=1 Bus1=bus3107.3 Bus2=bus3140.3  length=255 units=Ft LineCode=UG_1p_type2
New Line.L_3140_3141 phases=1 Bus1=bus3140.3 Bus2=bus3141.3  length=134 units=Ft LineCode=UG_1p_type2
New Line.L_3141_3142 phases=1 Bus1=bus3141.3 Bus2=bus3142.3  length=193 units=Ft LineCode=UG_1p_type2
New Line.L_3142_3143 phases=1 Bus1=bus3142.3 Bus2=bus3143.3  length=202 units=Ft LineCode=UG_1p_type2
New Line.L_3140_3148 phases=1 Bus1=bus3140.3 Bus2=bus3148.3  length=147 units=Ft LineCode=UG_1p_type2
New Line.L_3148_3149 phases=1 Bus1=bus3148.3 Bus2=bus3149.3  length=253 units=Ft LineCode=UG_1p_type2
New Line.L_3149_3150 phases=1 Bus1=bus3149.3 Bus2=bus3150.3  length=139 units=Ft LineCode=UG_1p_type2
New Line.L_3150_3151 phases=1 Bus1=bus3150.3 Bus2=bus3151.3  length=156 units=Ft LineCode=UG_1p_type2
New Line.L_3151_3152 phases=1 Bus1=bus3151.3 Bus2=bus3152.3  length=260 units=Ft LineCode=UG_1p_type2
New Line.L_3152_3153 phases=1 Bus1=bus3152.3 Bus2=bus3153.3  length=139 units=Ft LineCode=UG_1p_type2
New Line.L_3153_3154 phases=1 Bus1=bus3153.3 Bus2=bus3154.3  length=119 units=Ft LineCode=UG_1p_type2
New Line.L_3154_3155 phases=1 Bus1=bus3154.3 Bus2=bus3155.3  length=505 units=Ft LineCode=UG_1p_type2
New Line.L_3140_3156 phases=1 Bus1=bus3140.3 Bus2=bus3156.3  length=319 units=Ft LineCode=UG_1p_type2
New Line.L_3156_3144 phases=1 Bus1=bus3156.3 Bus2=bus3144.3  length=122 units=Ft LineCode=UG_1p_type2
New Line.L_3144_3145 phases=1 Bus1=bus3144.3 Bus2=bus3145.3  length=178 units=Ft LineCode=UG_1p_type2
New Line.L_3145_3146 phases=1 Bus1=bus3145.3 Bus2=bus3146.3  length=178 units=Ft LineCode=UG_1p_type2
New Line.L_3146_3147 phases=1 Bus1=bus3146.3 Bus2=bus3147.3  length=178 units=Ft LineCode=UG_1p_type2
New Line.L_3156_3157 phases=1 Bus1=bus3156.3 Bus2=bus3157.3  length=153 units=Ft LineCode=UG_1p_type2
New Line.L_3157_3158 phases=1 Bus1=bus3157.3 Bus2=bus3158.3  length=295 units=Ft LineCode=UG_1p_type2
New Line.L_3158_3159 phases=1 Bus1=bus3158.3 Bus2=bus3159.3  length=257 units=Ft LineCode=UG_1p_type2
New Line.L_3159_3160 phases=1 Bus1=bus3159.3 Bus2=bus3160.3  length=243 units=Ft LineCode=UG_1p_type2
New Line.L_3160_3161 phases=1 Bus1=bus3160.3 Bus2=bus3161.3  length=237 units=Ft LineCode=UG_1p_type2
New Line.L_3161_3162 phases=1 Bus1=bus3161.3 Bus2=bus3162.3  length=176 units=Ft LineCode=UG_1p_type2
New Line.L_3002_3002_L phases=3 Bus1=bus3002.1.2.3.0 Bus2=T_bus3002_L.1.2.3.0  length=1 units=Ft LineCode=T_type5
New Line.L_3004_3004_L phases=3 Bus1=bus3004.1.2.3.0 Bus2=T_bus3004_L.1.2.3.0  length=1 units=Ft LineCode=T_type5
New Line.L_3006_3006_L phases=3 Bus1=bus3006.1.2.3.0 Bus2=T_bus3006_L.1.2.3.0  length=1 units=Ft LineCode=T_type5
New Line.L_3007_3007_L phases=3 Bus1=bus3007.1.2.3.0 Bus2=T_bus3007_L.1.2.3.0  length=1 units=Ft LineCode=T_type2
New Line.L_3009_3009_L phases=1 Bus1=bus3009.1.0 Bus2=T_bus3009_L.1.0  length=1 units=Ft LineCode=T_type7
New Line.L_3010_3010_L phases=1 Bus1=bus3010.1.0 Bus2=T_bus3010_L.1.0  length=1 units=Ft LineCode=T_type7
New Line.L_3011_3011_L phases=1 Bus1=bus3011.1.0 Bus2=T_bus3011_L.1.0  length=1 units=Ft LineCode=T_type7
New Line.L_3012_3012_L phases=1 Bus1=bus3012.1.0 Bus2=T_bus3012_L.1.0  length=1 units=Ft LineCode=T_type8
New Line.L_3013_3013_L phases=1 Bus1=bus3013.2.0 Bus2=T_bus3013_L.2.0  length=1 units=Ft LineCode=T_type6
New Line.L_3014_3014_L phases=1 Bus1=bus3014.2.0 Bus2=T_bus3014_L.2.0  length=1 units=Ft LineCode=T_type7
New Line.L_3016_3016_L phases=1 Bus1=bus3016.2.0 Bus2=T_bus3016_L.2.0  length=1 units=Ft LineCode=T_type7
New Line.L_3017_3017_L phases=1 Bus1=bus3017.2.0 Bus2=T_bus3017_L.2.0  length=1 units=Ft LineCode=T_type12
New Line.L_3018_3018_L phases=1 Bus1=bus3018.3.0 Bus2=T_bus3018_L.3.0  length=1 units=Ft LineCode=T_type7
New Line.L_3019_3019_L phases=1 Bus1=bus3019.3.0 Bus2=T_bus3019_L.3.0  length=1 units=Ft LineCode=T_type7
New Line.L_3020_3020_L phases=1 Bus1=bus3020.3.0 Bus2=T_bus3020_L.3.0  length=1 units=Ft LineCode=T_type12
New Line.L_3021_3021_L phases=1 Bus1=bus3021.3.0 Bus2=T_bus3021_L.3.0  length=1 units=Ft LineCode=T_type7
New Line.L_3023_3023_L phases=1 Bus1=bus3023.1.0 Bus2=T_bus3023_L.1.0  length=1 units=Ft LineCode=T_type8
New Line.L_3024_3024_L phases=1 Bus1=bus3024.1.0 Bus2=T_bus3024_L.1.0  length=1 units=Ft LineCode=T_type7
New Line.L_3025_3025_L phases=1 Bus1=bus3025.1.0 Bus2=T_bus3025_L.1.0  length=1 units=Ft LineCode=T_type8
New Line.L_3026_3026_L phases=1 Bus1=bus3026.1.0 Bus2=T_bus3026_L.1.0  length=1 units=Ft LineCode=T_type7
New Line.L_3027_3027_L phases=1 Bus1=bus3027.1.0 Bus2=T_bus3027_L.1.0  length=1 units=Ft LineCode=T_type12
New Line.L_3028_3028_L phases=1 Bus1=bus3028.1.0 Bus2=T_bus3028_L.1.0  length=1 units=Ft LineCode=T_type12
New Line.L_3029_3029_L phases=1 Bus1=bus3029.1.0 Bus2=T_bus3029_L.1.0  length=1 units=Ft LineCode=T_type7
New Line.L_3031_3031_L phases=3 Bus1=bus3031.1.2.3.0 Bus2=T_bus3031_L.1.2.3.0  length=1 units=Ft LineCode=T_type5
New Line.L_3032_3032_L phases=3 Bus1=bus3032.1.2.3.0 Bus2=T_bus3032_L.1.2.3.0  length=1 units=Ft LineCode=T_type5
New Line.L_3033_3033_L phases=3 Bus1=bus3033.1.2.3.0 Bus2=T_bus3033_L.1.2.3.0  length=1 units=Ft LineCode=T_type5
New Line.L_3034_3034_L phases=3 Bus1=bus3034.1.2.3.0 Bus2=T_bus3034_L.1.2.3.0  length=1 units=Ft LineCode=T_type5
New Line.L_3035_3035_L phases=3 Bus1=bus3035.1.2.3.0 Bus2=T_bus3035_L.1.2.3.0  length=1 units=Ft LineCode=T_type5
New Line.L_3036_3036_L phases=3 Bus1=bus3036.1.2.3.0 Bus2=T_bus3036_L.1.2.3.0  length=1 units=Ft LineCode=T_type5
New Line.L_3037_3037_L phases=3 Bus1=bus3037.1.2.3.0 Bus2=T_bus3037_L.1.2.3.0  length=1 units=Ft LineCode=T_type5
New Line.L_3038_3038_L phases=3 Bus1=bus3038.1.2.3.0 Bus2=T_bus3038_L.1.2.3.0  length=1 units=Ft LineCode=T_type5
New Line.L_3039_3039_L phases=3 Bus1=bus3039.1.2.3.0 Bus2=T_bus3039_L.1.2.3.0  length=1 units=Ft LineCode=T_type5
New Line.L_3041_3041_L phases=1 Bus1=bus3041.3.0 Bus2=T_bus3041_L.3.0  length=1 units=Ft LineCode=T_type8
New Line.L_3042_3042_L phases=1 Bus1=bus3042.3.0 Bus2=T_bus3042_L.3.0  length=1 units=Ft LineCode=T_type7
New Line.L_3043_3043_L phases=1 Bus1=bus3043.3.0 Bus2=T_bus3043_L.3.0  length=1 units=Ft LineCode=T_type7
New Line.L_3044_3044_L phases=1 Bus1=bus3044.3.0 Bus2=T_bus3044_L.3.0  length=1 units=Ft LineCode=T_type7
New Line.L_3045_3045_L phases=1 Bus1=bus3045.3.0 Bus2=T_bus3045_L.3.0  length=1 units=Ft LineCode=T_type7
New Line.L_3047_3047_L phases=3 Bus1=bus3047.1.2.3.0 Bus2=T_bus3047_L.1.2.3.0  length=1 units=Ft LineCode=T_type5
New Line.L_3048_3048_L phases=3 Bus1=bus3048.1.2.3.0 Bus2=T_bus3048_L.1.2.3.0  length=1 units=Ft LineCode=T_type5
New Line.L_3049_3049_L phases=3 Bus1=bus3049.1.2.3.0 Bus2=T_bus3049_L.1.2.3.0  length=1 units=Ft LineCode=T_type5
...

//---------------------Circuit Breakers of Feeder A----------------------//
New Line.CB_101  Phases=3  Bus1=bus1.1.2.3   Bus2=bus1001.1.2.3  switch=y  r1=1e-4  r0=1e-4  x1=0  x0=0  c1=0  c0=0
New Line.CB_102  Phases=3  Bus1=bus1010.1.2.3   Bus2=bus2057.1.2.3  switch=y  r1=1e-4  r0=1e-4  x1=0  x0=0  c1=0  c0=0  enabled=n   ! Bus2 is supposed to connect to bus2057.1.2.3 when reconfiguring, normally open
! Circuit breaker name, number of phases, 1st bus, 2nd bus, this line is a switch, positive-sequence resistance per uint length, zero-sequence resistance per uint length, positive-sequence reactance per uint length, zero-sequence reactance per uint length, positive-sequence capacitance per uint length, zero-sequence capacitance per uint length. Note that we use Bus2=bus2057.4.5.6 to achieve a normally open circuit breaker, i.e. connecting the energized nodes (bus1010.1.2.3) to non-energized nodes (bus2057.4.5.6).

//---------------------Circuit Breakers of Feeder B----------------------//
New Line.CB_201  Phases=3  Bus1=bus1.1.2.3      Bus2=bus2001.1.2.3  switch=y  r1=1e-4  r0=1e-4  x1=0  x0=0  c1=0  c0=0
New Line.CB_202  Phases=3  Bus1=bus2012.1.2.3   Bus2=bus2013.1.2.3  switch=y  r1=1e-4  r0=1e-4  x1=0  x0=0  c1=0  c0=0
New Line.CB_203  Phases=3  Bus1=bus2021.1.2.3   Bus2=bus2026.1.2.3  switch=y  r1=1e-4  r0=1e-4  x1=0  x0=0  c1=0  c0=0
New Line.CB_204  Phases=3  Bus1=bus2013.1.2.3   Bus2=bus3005.1.2.3  switch=y  r1=1e-4  r0=1e-4  x1=0  x0=0  c1=0  c0=0  enabled=n  ! Bus2 is supposed to connect to bus3005.1.2.3 when reconfiguring, normally open

//---------------------Circuit Breakers of Feeder C----------------------//
New Line.CB_301  Phases=3  Bus1=bus1.1.2.3      Bus2=bus3001.1.2.3  switch=y  r1=1e-4  r0=1e-4  x1=0  x0=0  c1=0  c0=0
New Line.CB_302  Phases=3  Bus1=bus3075.1.2.3   Bus2=bus3076.1.2.3  switch=y  r1=1e-4  r0=1e-4  x1=0  x0=0  c1=0  c0=0
New Line.CB_303  Phases=3  Bus1=bus3081.1.2.3   Bus2=bus2016.1.2.3  switch=y  r1=1e-4  r0=1e-4  x1=0  x0=0  c1=0  c0=0  enabled=n   ! Bus2 is supposed to connect to bus2016.1.2.3 when reconfiguring, normally open

//***************************************************************************************//
//                                             Feeder A
//***************************************************************************************//
New LoadShape.1003_loadcurve interval=1 npts=24 useactual=Yes
 ~ pmult=(15.434 14.526 15.054 14.667 13.87 13.516 12.884 13.43 11.331 11.749 11.511 11.72 11.063 14.099 12.124 11.395 11.945 12.189 12.612 13.385 13.923 14.158 13.13 14.626)
 ~ qmult=(3.8681 4.2367 7.291 6.6825 5.9086 5.3419 5.8701 5.7212 3.7243 5.6903 4.5494 1.67 2.2464 4.1122 4.7917 4.8542 2.4255 5.5535 4.1454 3.3546 5.5027 6.857 5.1893 6.6638)
New LoadShape.1004_loadcurve interval=1 npts=24 useactual=Yes
 ~ pmult=(6.913 6.73 6.833 6.941 6.915 6.691 7.306 11.51 14.474 19.695 19.69 18.02 17.975 12.407 9.221 10.019 8.176 6.436 6.496 6.618 6.564 6.52 6.101 7.343)
 ~ qmult=(2.9449 2.6599 3.3094 3.3617 2.2729 3.0485 2.1309 2.3372 7.0101 3.9992 3.9982 2.5677 8.1897 4.5031 3.0308 1.4276 2.0491 0.9171 3.1462 1.6586 1.6451 2.9706 1.5291 2.4135)
New LoadShape.1005_loadcurve interval=1 npts=24 useactual=Yes
 ~ pmult=(5.05 4.978 5.072 5.092 5.583 4.963 5.876 4.692 4.326 5.434 11.284 9.336 9.978 9.331 7.307 7.011 8.049 11.693 6.849 3.564 5.272 3.493 3.516 3.482)
 ~ qmult=(1.8329 2.268 1.2712 1.6737 0.7955 1.4475 2.5032 1.3685 0.8784 1.7861 2.2913 3.0686 2.5007 3.975 1.4837 2.0449 3.4289 1.6662 2.7069 1.4086 1.0705 1.3805 1.6019 1.1445)
New Loadshape.1006_1_loadcurve interval=1 npts=24 useactual=Yes
 ~ pmult=(2.16 2.02 2.34 2.36 2.14 2.28 2.38 1.94 1.88 1.94 1.94 4.52 4.64 4.94 4.58 4.32 4.76 2.32 1.28 1.84 1.58 1.9 1.64 1.58)
 ~ qmult=(1.0461 0.4102 0.4752 0.4792 0.5363 1.1043 0.6942 0.3939 0.3818 0.7667 0.2764 2.0594 1.6841 2.1044 1.6623 1.568 1.3883 0.9883 0.3733 0.4611 0.396 0.9202 0.6482 0.7199)
New Loadshape.1006_2_loadcurve interval=1 npts=24 useactual=Yes
 ~ pmult=(2.16 2.02 2.34 2.36 2.14 2.28 2.38 1.94 1.88 1.94 1.94 4.52 4.64 4.94 4.58 4.32 4.76 2.32 1.28 1.84 1.58 1.9 1.64 1.58)
 ~ qmult=(1.0461 0.4102 0.4752 0.4792 0.5363 1.1043 0.6942 0.3939 0.3818 0.7667 0.2764 2.0594 1.6841 2.1044 1.6623 1.568 1.3883 0.9883 0.3733 0.4611 0.396 0.9202 0.6482 0.7199)
New Loadshape.1007_1_loadcurve interval=1 npts=24 useactual=Yes
 ~ pmult=(1.7515 1.667 1.783 1.7275 1.6745 1.522 1.6725 1.4865 1.823 1.71 1.649 1.646 1.235 1.5585 1.5745 1.3375 1.366 1.5355 1.814 2.031 1.9885 2.0965 2.066 1.929)
 ~ qmult=(0.6357 0.3385 0.2541 0.5678 0.4197 0.5003 0.2383 0.5395 0.8829 0.4286 0.7025 0.541 0.176 0.2221 0.7174 0.5286 0.6616 0.5047 0.7728 0.5924 0.2833 0.5254 0.7499 0.7624)
New Loadshape.1007_2_loadcurve interval=1 npts=24 useactual=Yes
 ~ pmult=(1.7515 1.667 1.783 1.7275 1.6745 1.522 1.6725 1.4865 1.823 1.71 1.649 1.646 1.235 1.5585 1.5745 1.3375 1.366 1.5355 1.814 2.031 1.9885 2.0965 2.066 1.929)
 ~ qmult=(0.6357 0.3385 0.2541 0.5678 0.4197 0.5003 0.2383 0.5395 0.8829 0.4286 0.7025 0.541 0.176 0.2221 0.7174 0.5286 0.6616 0.5047 0.7728 0.5924 0.2833 0.5254 0.7499 0.7624)
New LoadShape.1008_loadcurve interval=1 npts=24 useactual=Yes
 ~ pmult=(7.414 10.375 10.849 10.888 10.972 6.517 5.961 6.422 6.202 5.826 5.318 5.196 4.9 5.031 5.474 9.587 7.917 7.374 5.887 6.998 5.096 4.812 5.246 5.471)
 ~ qmult=(1.8581 5.0248 2.203 3.9518 2.7498 2.3654 1.9593 2.3309 1.8089 0.8302 1.5511 1.0551 1.6106 1.9884 2.6512 3.789 1.6076 1.4974 1.4754 1.421 2.1709 1.7465 1.5301 2.1623)
New LoadShape.1009_loadcurve interval=1 npts=24 useactual=Yes
 ~ pmult=(9.511 9.424 7.976 8.809 8.649 7.727 8.443 7.314 7.274 8.197 8.16 8.034 8.275 7.608 7.424 8.185 7.635 7.961 8.53 8.102 6.843 8.927 9.1 8.888)
 ~ qmult=(4.3333 4.5643 1.1365 4.2664 2.1676 3.7424 3.3369 2.404 2.6401 3.4919 1.657 2.0135 2.7199 3.6847 3.3825 3.9642 1.9135 1.6165 2.1378 3.924 2.2492 4.0673 1.8478 3.2259)
New LoadShape.1010_loadcurve interval=1 npts=24 useactual=Yes
 ~ pmult=(4.569 5.298 4.967 3.913 4.019 3.212 4.119 4.021 3.513 4.024 6.047 5.522 5.826 6.059 7.094 4.426 7.176 6.127 7.391 6.652 7.048 5.819 10.921 6.803)
 ~ qmult=(1.6583 0.7549 1.9631 0.5576 0.8161 0.6522 1.7547 1.832 0.7133 0.5734 2.9287 1.6106 2.6544 2.1991 1.0108 1.4548 1.4571 2.0138 2.6826 3.2217 3.0024 0.8292 4.9758 3.2948)
New LoadShape.1011_loadcurve interval=1 npts=24 useactual=Yes
 ~ pmult=(2.954 2.76 3.025 2.891 2.842 3.99 2.718 2.389 5.452 3.722 4.3 3.023 2.732 3.269 6.523 5.537 4.506 3.557 3.671 5.234 4.744 3.411 6.21 3.275)
 ~ qmult=(1.2584 0.805 1.4651 0.7246 0.7123 1.1638 0.7928 1.0885 1.9788 1.6958 1.8318 0.8817 0.3893 1.0745 2.7788 2.5227 1.1293 0.7223 1.3324 2.3847 1.7218 1.4531 1.8113 0.8208)
New LoadShape.1012_loadcurve interval=1 npts=24 useactual=Yes
 ~ pmult=(3.035 1.38 1.609 1.299 1.789 1.44 1.207 1.209 2.026 3.172 7.231 10.1 5.458 8.783 10.162 4.741 5.273 4.223 5.406 9.523 12.443 8.275 1.668 1.473)
 ~ qmult=(1.4699 0.5454 0.7331 0.427 0.588 0.6134 0.3967 0.4778 0.9231 0.6441 2.109 4.8917 1.981 2.8868 4.0163 1.1882 1.3215 1.799 1.9621 2.7775 5.3007 3.0034 0.4865 0.3692)
New LoadShape.1013_loadcurve interval=1 npts=24 useactual=Yes
 ~ pmult=(2.289 2.302 2.71 2.294 2.308 2.328 2.446 2.665 1.973 2.113 1.972 2.673 2.226 1.648 1.686 1.839 1.723 2.22 5.32 3.268 2.775 2.394 2.411 2.251)
 ~ qmult=(0.9047 0.8355 1.3125 0.5749 0.7586 0.3317 0.613 0.9673 0.8989 0.7669 0.9551 0.5428 0.5579 0.7509 0.4918 0.262 0.8345 0.8774 1.0803 1.4889 1.1821 0.3411 0.4896 1.0256)
New LoadShape.1014_loadcurve interval=1 npts=24 useactual=Yes
 ~ pmult=(0.751 0.547 0.484 0.371 0.32 0.423 0.302 0.327 0.859 0.491 0.404 0.971 0.479 0.364 0.408 0.446 0.509 3.195 1.209 2.715 1.44 0.633 0.432 0.36)
 ~ qmult=(0.1525 0.2162 0.069 0.0753 0.065 0.139 0.0613 0.1584 0.3395 0.1941 0.1957 0.2434 0.2182 0.1439 0.1341 0.2032 0.2012 1.5474 0.5855 1.3149 0.5691 0.1586 0.126 0.1744)
New LoadShape.1015_loadcurve interval=1 npts=24 useactual=Yes
 ~ pmult=(0.614 0.522 0.437 0.401 0.42 0.417 0.415 0.43 0.469 0.748 0.611 0.761 0.929 0.899 0.924 2.758 5.948 2.36 2.035 4.46 3.457 1.93 0.718 0.697)
 ~ qmult=(0.1539 0.0744 0.0623 0.1318 0.138 0.0847 0.104 0.1254 0.0952 0.2715 0.2415 0.222 0.2328 0.2955 0.2695 0.9065 0.8475 0.4792 0.9272 1.9 0.4926 0.8222 0.236 0.1415)
New LoadShape.1016_loadcurve interval=1 npts=24 useactual=Yes
 ~ pmult=(3.035 1.38 1.609 1.299 1.789 1.44 1.207 1.209 2.026 3.172 7.231 10.1 5.458 8.783 10.162 4.741 5.273 4.223 5.406 9.523 12.443 8.275 1.668 1.473)
 ~ qmult=(1.1995 0.1966 0.584 0.5918 0.8151 0.6974 0.4381 0.303 0.7353 1.2537 3.2945 2.5313 2.1571 2.8868 4.9217 1.5583 1.9138 1.669 2.1366 1.357 5.3007 3.2705 0.7106 0.2099)
New LoadShape.1017_loadcurve interval=1 npts=24 useactual=Yes
 ~ pmult=(2.19 2.974 1.703 2.508 4.918 5.823 3.388 3.551 3.073 2.822 5.599 6.715 1.606 4.118 4.7 3.963 3.628 2.472 4.302 6.445 4.099 6.125 3.972 1.983)
 ~ qmult=(0.6388 0.8674 0.4967 0.6286 1.785 2.4806 1.6409 1.5127 0.8963 1.2022 2.7117 2.6539 0.2288 1.0321 1.5448 0.5647 0.9093 0.721 1.0782 2.3392 1.8676 1.2437 1.8097 0.4027)

//***************************************************************************************//
//                                             Feeder B
//***************************************************************************************//
New LoadShape.2002_loadcurve interval=1 npts=24 useactual=Yes
 ~ pmult=(30.42 30.68 31.68 32.44 30.64 31.08 30.66 29.96 28.84 30.8 40.02 40.12 37.72 38.2 39.78 39.44 38.44 43.76 42.02 40.66 42.68 40.8 41.08 41.2)
 ~ qmult=(9.9986 12.1255 9.24 8.1302 14.8396 9.065 8.9425 11.8409 9.4792 14.9171 19.3826 10.055 14.9079 16.2731 18.1243 14.3148 13.9519 19.9376 16.6074 17.3211 16.8682 16.1252 13.5023 18.7713)
New LoadShape.2003_loadcurve interval=1 npts=24 useactual=Yes
 ~ pmult=(11.792 12.049 12.591 11.48 10.414 10.625 10.478 11.106 5.995 5.524 7.608 6.459 4.886 8.799 4.529 3.552 4.438 5.294 6.489 9.4 10.233 10.399 10.899 11.508)
 ~ qmult=(1.6803 2.4467 2.5567 2.8772 4.1159 4.8409 3.444 5.06 2.5539 1.6112 3.241 1.6188 1.2245 2.8921 1.79 1.1675 1.754 1.5441 2.5646 3.4117 3.7141 1.4818 4.643 4.9024)
New LoadShape.2005_loadcurve interval=1 npts=24 useactual=Yes
 ~ pmult=(6.964 7.121 6.764 6.402 6.464 7.083 6.523 6.485 5.335 5.539 8.839 9.933 10.373 8.631 8.181 7.418 4.55 6.26 6.162 4.745 9.947 7.603 9.27 9.147)
 ~ qmult=(0.9923 2.3406 3.0818 2.7272 2.5547 3.2271 2.5781 2.1315 0.7602 2.1892 4.2809 3.6052 4.0997 3.9324 2.9693 2.9318 0.9239 2.6667 2.8075 2.2981 1.4174 1.5439 3.6637 1.8574)
New LoadShape.2008_loadcurve interval=1 npts=24 useactual=Yes
 ~ pmult=(2.015 1.875 1.722 1.845 1.586 1.727 1.569 1.572 1.816 2.039 1.456 1.227 1.154 1.286 1.326 1.409 1.235 1.243 2.184 2.423 2.656 2.193 1.751 2.008)
 ~ qmult=(0.4092 0.7987 0.834 0.8406 0.5213 0.5037 0.3932 0.394 0.2588 0.2905 0.6634 0.5943 0.4561 0.3751 0.3867 0.2008 0.2508 0.1771 1.0578 0.7067 0.7747 0.7208 0.5755 0.7936)
New LoadShape.2009_loadcurve interval=1 npts=24 useactual=Yes
 ~ pmult=(0.674 0.69 0.622 0.582 0.69 0.935 0.942 0.646 0.613 0.697 0.807 0.548 0.538 0.516 0.589 0.536 0.48 0.402 0.851 0.762 0.78 0.716 1.125 0.548)
 ~ qmult=(0.2871 0.1729 0.265 0.2479 0.3342 0.3073 0.2747 0.2943 0.0873 0.253 0.2929 0.2654 0.2606 0.1293 0.1476 0.1088 0.2187 0.1589 0.3625 0.2223 0.3323 0.1454 0.4083 0.2654)
New LoadShape.2010_loadcurve interval=1 npts=24 useactual=Yes
 ~ pmult=(1.729 1.289 1.495 1.288 1.198 1.324 1.357 1.451 1.47 1.071 2.254 1.151 0.989 1.19 3.29 3.322 6.231 3.407 1.341 0.992 1.303 2.585 1.424 1.564)
 ~ qmult=(0.2464 0.1837 0.213 0.5487 0.4348 0.4805 0.6183 0.3637 0.2095 0.1526 1.027 0.4903 0.2479 0.4319 0.6681 1.2057 2.6544 0.9937 0.1911 0.2893 0.5551 1.0217 0.6488 0.6663)
New LoadShape.2011_loadcurve interval=1 npts=24 useactual=Yes
 ~ pmult=(7.185 5.959 5.84 6.165 5.868 5.937 5.982 6.176 5.983 6.044 6.59 4.745 4.885 5.084 4.463 4.127 6.293 7.177 5.994 5.011 5.999 5.396 5.054 4.825)
 ~ qmult=(2.0956 1.21 1.4636 1.7981 2.6735 2.1548 0.8524 2.03 1.2149 2.3887 1.6516 1.7222 1.2243 2.1658 1.4669 1.8803 1.2778 1.7987 2.7309 1.4615 2.371 2.1326 1.8344 0.6875)
New LoadShape.2014_loadcurve interval=1 npts=24 useactual=Yes
 ~ pmult=(2.191 2.225 2.695 2.251 2.778 3.527 2.65 1.968 1.919 2.316 2.696 1.992 2.043 6.732 2.831 2.968 1.834 2.832 2.207 4.618 5.855 6.553 2.343 2.647)
 ~ qmult=(0.7952 0.649 0.9782 0.817 1.0083 1.6069 1.2835 0.2804 0.8743 0.7612 1.3057 0.4045 0.9308 2.8678 1.3711 1.173 0.8356 1.0279 0.6437 2.2366 1.7077 0.9338 1.1348 0.87)
New LoadShape.2015_loadcurve interval=1 npts=24 useactual=Yes
 ~ pmult=(1.588 1.618 1.187 1.425 1.442 1.341 1.4 1.231 1.439 1.231 1.261 1.411 1.254 1.485 1.323 1.922 3.226 3.329 1.71 1.462 1.365 1.79 1.55 1.644)
 ~ qmult=(0.7235 0.3285 0.5749 0.6902 0.2928 0.2723 0.4083 0.5244 0.473 0.5609 0.2561 0.2865 0.3143 0.6326 0.5229 0.6317 1.5624 1.0942 0.3472 0.6661 0.3981 0.7075 0.3885 0.412)
New LoadShape.2016_loadcurve interval=1 npts=24 useactual=Yes
 ~ pmult=(1.787 1.707 1.677 1.634 1.688 2.193 3.665 2.425 2.407 2.948 2.05 1.859 2.273 2.293 2.144 2.204 2.216 3.451 2.508 2.034 2.316 2.576 2.732 2.928)
 ~ qmult=(0.7063 0.3466 0.7641 0.4766 0.4923 0.8667 1.3302 0.6078 0.4888 0.969 0.8102 0.4659 0.9683 0.9063 0.9133 0.7999 1.0096 0.4917 0.7315 0.5098 0.9866 0.7513 1.3232 1.2473)
New LoadShape.2017_loadcurve interval=1 npts=24 useactual=Yes
...